xflr5 v6.43

 Calculated polar for: NACA 4412

 1 1 Reynolds number fixed          Mach number fixed         

 xtrf =   1.000 (top)        1.000 (bottom)
 Mach =   0.200     Re =    60.000 e 6     Ncrit =   9.000

  alpha     CL        CD       CDp       Cm    Top Xtr Bot Xtr   Cpmin    Chinge    XCp    
 ------- -------- --------- --------- -------- ------- ------- -------- --------- ---------
 -22.000  -0.7480   0.21532   0.21468   0.0150  0.9210  0.0040  -8.0616   0.0000   0.2372
 -21.000  -0.7134   0.20479   0.20392   0.0077  0.8329  0.0050  -7.4996   0.0000   0.2299
 -20.000  -0.6776   0.19462   0.19362   0.0008  0.7693  0.0060  -6.9106   0.0000   0.2223
 -18.000  -1.6492   0.01583   0.01331  -0.1219  0.9108  0.0045  -24.8955   0.0000   0.1504
 -17.000  -1.5455   0.01326   0.01048  -0.1176  0.8539  0.0055  -22.2674   0.0000   0.1504
 -16.000  -1.4333   0.01143   0.00840  -0.1141  0.7862  0.0063  -19.6996   0.0000   0.1490
 -14.000  -1.1938   0.00920   0.00589  -0.1092  0.7096  0.0066  -15.3499   0.0000   0.1407
 -13.000  -1.0724   0.00835   0.00494  -0.1075  0.6829  0.0066  -13.4004   0.0000   0.1335
 -12.000  -0.9507   0.00764   0.00415  -0.1062  0.6557  0.0067  -11.5963   0.0000   0.1233
 -11.000  -0.8290   0.00705   0.00347  -0.1052  0.6233  0.0068  -9.9333   0.0000   0.1091
 -10.000  -0.7073   0.00656   0.00289  -0.1046  0.5914  0.0068  -8.4062   0.0000   0.0890
  -9.000  -0.5860   0.00617   0.00242  -0.1042  0.5489  0.0070  -7.0130   0.0000   0.0596
  -8.000  -0.4652   0.00573   0.00192  -0.1040  0.5076  0.0108  -5.7524   0.0000   0.0138
  -7.000  -0.3441   0.00541   0.00156  -0.1041  0.4777  0.0119  -4.6047   0.0000  -0.0661
  -6.000  -0.2228   0.00521   0.00131  -0.1044  0.4495  0.0121  -3.5839   0.0000  -0.2350
  -5.000  -0.1019   0.00502   0.00109  -0.1049  0.4245  0.0165  -2.7966   0.0000  -0.8072
  -4.000   0.0192   0.00483   0.00091  -0.1056  0.4133  0.0197  -2.0868   0.0000   5.8615
  -3.000   0.1400   0.00468   0.00077  -0.1063  0.3929  0.0269  -1.4679   0.0000   1.0194
  -2.000   0.2601   0.00464   0.00071  -0.1071  0.3650  0.0366  -0.9975   0.0000   0.6645
  -1.000   0.3793   0.00469   0.00071  -0.1077  0.3288  0.0540  -0.7136   0.0000   0.5342
   0.000   0.4982   0.00477   0.00075  -0.1084  0.2890  0.0755  -0.8030   0.0000   0.4662
   2.000   0.7316   0.00531   0.00111  -0.1092  0.1807  0.1485  -1.0004   0.0000   0.3956
   3.000   0.8467   0.00571   0.00139  -0.1093  0.1265  0.1928  -1.1238   0.0000   0.3743
   4.000   0.9610   0.00616   0.00174  -0.1092  0.0799  0.2414  -1.2694   0.0000   0.3578
   5.000   1.0753   0.00658   0.00211  -0.1091  0.0529  0.2979  -1.5847   0.0000   0.3445
   6.000   1.1884   0.00705   0.00257  -0.1087  0.0318  0.3680  -2.0584   0.0000   0.3334
   7.000   1.3009   0.00749   0.00306  -0.1083  0.0216  0.4705  -2.6345   0.0000   0.3237
   8.000   1.4115   0.00803   0.00366  -0.1074  0.0136  0.5618  -3.3652   0.0000   0.3152
   9.000   1.5217   0.00851   0.00426  -0.1063  0.0117  0.6789  -4.1756   0.0000   0.3075
  10.000   1.6274   0.00913   0.00509  -0.1045  0.0075  0.8556  -5.0477   0.0000   0.3001
  11.000   1.7298   0.00971   0.00587  -0.1017  0.0068  1.0000  -6.1342   0.0000   0.2930
  12.000   1.8291   0.01065   0.00679  -0.0984  0.0064  1.0000  -7.3074   0.0000   0.2861
  13.000   1.9103   0.01198   0.00810  -0.0917  0.0039  1.0000  -8.4709   0.0000   0.2784
  14.000   1.9810   0.01338   0.00951  -0.0833  0.0031  1.0000  -9.6591   0.0000   0.2704
  15.000   2.0477   0.01527   0.01144  -0.0753  0.0030  1.0000  -10.9019   0.0000   0.2630
  16.000   2.1068   0.01785   0.01407  -0.0672  0.0030  1.0000  -12.1687   0.0000   0.2558
  17.000   2.1571   0.02138   0.01767  -0.0593  0.0030  1.0000  -13.4396   0.0000   0.2490
  18.000   2.1978   0.02619   0.02258  -0.0522  0.0030  1.0000  -14.6954   0.0000   0.2427
  19.000   2.2251   0.03274   0.02924  -0.0460  0.0029  1.0000  -15.8848   0.0000   0.2369
  20.000   2.2409   0.04128   0.03792  -0.0414  0.0029  1.0000  -17.0086   0.0000   0.2318
  21.000   2.2391   0.05205   0.04886  -0.0382  0.0029  1.0000  -18.1181   0.0000   0.2274
  22.000   2.2088   0.06672   0.06372  -0.0373  0.0028  1.0000  -18.9102   0.0000   0.2242
  23.000   2.1654   0.08331   0.08053  -0.0384  0.0027  1.0000  -19.5288   0.0000   0.2218
  24.000   2.1018   0.10268   0.10012  -0.0423  0.0025  1.0000  -19.8438   0.0000   0.2208
  25.000   2.0275   0.12441   0.12208  -0.0496  0.0022  1.0000  -19.9268   0.0000   0.2218


